caseWest10k_SE.m
function mpc = caseWest10k_SE
%CASEWEST10K_SE

%% MATPOWER Case Format : Version 2
mpc.version = '2';

%%-----  Power Flow Data  -----%%
%% system MVA base
mpc.baseMVA = 100;

%% bus data
%	bus_i	type	Pd	Qd	Gs	Bs	area	Vm	Va	baseKV	zone	Vmax	Vmin	lam_P	lam_Q	mu_Vmax	mu_Vmin
mpc.bus = [
	1	1	9.64	2.54	0	0	1	1.00972487	-41.5060679	138	1	1.1	0.9	20.7700	0.2800	0.0000	0.0000;
	2	1	15.98	6.04	0	0	1	1.01528329	-38.702029	138	1	1.1	0.9	20.4700	0.2900	0.0000	0.0000;
	3	1	14.39	1.09	0	0	1	1.03011968	-35.6944672	138	1	1.1	0.9	20.0800	0.2600	0.0000	0.0000;
	4	1	0	0	0	0	1	1.03117091	-35.5816706	138	1	1.1	0.9	20.0600	0.2600	0.0000	0.0000;
	5	1	10.45	2.75	0	0	1	1.03111925	-35.5879781	138	1	1.1	0.9	20.0600	0.2600	0.0000	0.0000;
	6	1	13.44	1.28	0	0	1	1.02639662	-37.5678449	138	1	1.1	0.9	20.3300	0.1300	0.0000	0.0000;
	7	1	0	0	0	0	1	1.02644642	-37.5597237	138	1	1.1	0.9	20.3300	0.1300	0.0000	0.0000;
	8	1	0	0	0	0	1	1.0239586	-36.488202	138	1	1.1	0.9	20.2500	0.1200	0.0000	0.0000;
	9	1	16.82	2.59	0	0	1	1.02389335	-36.4974828	138	1	1.1	0.9	20.2500	0.1200	0.0000	0.0000;
	10	1	33.49	15.14	0	0	1	1.02147055	-36.5016639	138	1	1.1	0.9	20.1800	0.2900	0.0000	0.0000;
	11	1	32.02	8.17	0	0	1	1.00539397	-42.2649673	138	1	1.1	0.9	20.7700	0.2900	0.0000	0.0000;
	12	1	0	0	0	0	1	1.03411079	-33.9105897	345	1	1.1	0.9	20.0400	0.2200	0.0000	0.0000;
	13	1	57.79	30.06	0	0	1	1.02655369	-35.980144	138	1	1.1	0.9	20.0700	0.2600	0.0000	0.0000;
	14	1	0	0	0	0	1	1.02406232	-36.2952985	138	1	1.1	0.9	20.1300	0.2700	0.0000	0.0000;
	15	1	25.01	11.8	0	0	1	1.02387084	-36.3084406	138	1	1.1	0.9	20.1300	0.2700	0.0000	0.0000;
	16	1	0	0	0	0	1	1.02025438	-33.9912382	138	1	1.1	0.9	20.0300	0.0900	0.0000	0.0000;
	17	1	25.89	7.16	0	0	1	1.02011004	-34.006672	138	1	1.1	0.9	20.0300	0.0900	0.0000	0.0000;
	18	1	24.47	6.19	0	0	1	1.03023345	-37.0286241	138	1	1.1	0.9	20.2100	0.2700	0.0000	0.0000;
	19	1	0	0	0	0	1	1.03634134	-38.1838343	345	1	1.1	0.9	20.3900	0.2300	0.0000	0.0000;
	20	1	53.35	4.54	0	32	1	1.01432773	-40.7279883	138	1	1.1	0.9	20.4800	0.2600	0.0000	0.0000;
	21	1	8.99	2.13	0	0	1	1.0322006	-33.7028746	138	1	1.1	0.9	19.9100	0.1100	0.0000	0.0000;
	22	1	48.19	15.92	0	0	1	1.03856847	-37.3470446	138	1	1.1	0.9	20.2200	0.2400	0.0000	0.0000;
	23	1	0	0	0	0	1	1.03063219	-34.8729379	345	1	1.1	0.9	20.1200	0.2300	0.0000	0.0000;
	24	1	43.96	8.97	0	0	1	1.04193701	-37.2673878	138	1	1.1	0.9	20.1900	0.2200	0.0000	0.0000;
	25	1	30.89	12.76	0	0	1	1.03026974	-34.389125	138	1	1.1	0.9	19.9200	0.1100	0.0000	0.0000;
	26	1	18.65	4.97	0	0	1	1.0029703	-42.7190259	138	1	1.1	0.9	20.4000	0.1800	0.0000	0.0000;
	27	1	0	0	0	0	1	1.00246723	-42.7358044	138	1	1.1	0.9	20.8000	0.3300	0.0000	0.0000;
	28	1	32.23	12.72	0	0	1	1.0022569	-42.7528556	138	1	1.1	0.9	20.8100	0.3300	0.0000	0.0000;
	29	1	32.23	1.85	0	0	1	1.00724393	-42.1153637	138	1	1.1	0.9	20.6800	0.3000	0.0000	0.0000;
	30	1	0	0	0	0	1	1.03552151	-36.7075261	138	1	1.1	0.9	20.1700	0.2500	0.0000	0.0000;
	31	1	39.8	7.18	0	0	1	1.03535475	-36.7289442	138	1	1.1	0.9	20.1800	0.2500	0.0000	0.0000;
	32	1	41.5	5.68	0	0	1	1.02868934	-37.7779578	138	1	1.1	0.9	20.2900	0.2700	0.0000	0.0000;
	33	1	59.05	6.96	0	0	1	1.03020589	-34.3268925	138	1	1.1	0.9	19.9400	0.1700	0.0000	0.0000;
	34	1	0	0	0	0	1	1.03038913	-34.2060637	138	1	1.1	0.9	19.9200	0.1800	0.0000	0.0000;
	35	1	59.05	42.65	0	0	1	1.02985051	-34.23402	138	1	1.1	0.9	19.9300	0.1800	0.0000	0.0000;
	36	1	0	0	0	0	1	1.03102253	-34.1740296	138	1	1.1	0.9	19.9200	0.1700	0.0000	0.0000;
	37	1	58.29	11.32	0	0	1	1.02852881	-33.7476093	138	1	1.1	0.9	19.9300	0.0900	0.0000	0.0000;
	38	1	36.59	13.17	0	0	1	1.03341676	-38.0585069	138	1	1.1	0.9	20.3300	0.2600	0.0000	0.0000;
	39	1	0	0	0	0	1	1.03365294	-38.0391426	138	1	1.1	0.9	20.3300	0.2600	0.0000	0.0000;
	40	1	43.57	13.69	0	0	1	1.02771995	-38.7473917	138	1	1.1	0.9	20.4000	0.2800	0.0000	0.0000;
	41	1	20.08	9.93	0	0	1	1.02492673	-32.9810495	138	1	1.1	0.9	19.8700	0.0900	0.0000	0.0000;
	42	1	59.25	11.36	0	0	1	1.0300608	-34.8581198	138	1	1.1	0.9	19.9700	0.1300	0.0000	0.0000;
	43	1	0	0	0	0	1	1.01318162	-40.4715237	138	1	1.1	0.9	20.5500	0.3000	0.0000	0.0000;
	44	1	37.54	1.74	0	0	1	1.01307442	-40.495729	138	1	1.1	0.9	20.5500	0.3000	0.0000	0.0000;
	45	1	25.35	12.91	0	0	1	1.02448288	-33.8309002	138	1	1.1	0.9	19.9300	0.1300	0.0000	0.0000;
	46	1	0	0	0	0	1	1.01855544	-36.1881315	138	1	1.1	0.9	20.1600	0.1700	0.0000	0.0000;
	47	1	45.76	5.94	0	0	1	1.01839719	-36.2129098	138	1	1.1	0.9	20.1600	0.1700	0.0000	0.0000;
	48	1	45.76	10.24	0	0	1	1.01902711	-36.1628356	138	1	1.1	0.9	20.1500	0.1700	0.0000	0.0000;
	49	1	0	0	0	0	1	1.01923775	-36.1375453	138	1	1.1	0.9	20.1500	0.1700	0.0000	0.0000;
	50	1	0	0	0	0	1	1.01902711	-36.1628356	138	1	1.1	0.9	20.1500	0.1700	0.0000	0.0000;
	51	1	0	0	0	0	1	1.00495686	-42.4566335	138	1	1.1	0.9	20.3700	0.1800	0.0000	0.0000;
	52	1	17.51	1.94	0	0	1	1.00488807	-42.4677841	138	1	1.1	0.9	20.3700	0.1800	0.0000	0.0000;
	53	1	43.68	4.56	0	0	1	1.02241466	-35.3513215	138	1	1.1	0.9	20.1200	0.1300	0.0000	0.0000;
	54	1	43.32	16.13	0	0	1	1.00350151	-42.7234983	138	1	1.1	0.9	20.8300	0.3400	0.0000	0.0000;
	55	1	17.57	5.16	0	0	1	1.02164389	-36.4109541	138	1	1.1	0.9	20.1400	0.1600	0.0000	0.0000;
	56	1	0	0	0	0	1	1.02174664	-36.4020028	138	1	1.1	0.9	20.1400	0.1600	0.0000	0.0000;
	57	1	0	0	0	0	1	1.02986496	-33.9562859	345	1	1.1	0.9	20.0700	0.1700	0.0000	0.0000;
	58	1	43.93	8.14	0	0	1	1.01885741	-36.3430735	138	1	1.1	0.9	20.1300	0.2000	0.0000	0.0000;
	59	1	0	0	0	0	1	1.03073571	-33.8608908	345	1	1.1	0.9	20.0600	0.1700	0.0000	0.0000;
	60	1	43.93	27.62	0	0	1	1.01648693	-36.4298143	138	1	1.1	0.9	20.1600	0.2000	0.0000	0.0000;
	61	1	51.07	18.71	0	22	1	1.02300752	-39.7413831	138	1	1.1	0.9	20.5300	0.2800	0.0000	0.0000;
	62	1	0	0	0	0	1	1.016006	-41.5456082	138	1	1.1	0.9	20.6600	0.3000	0.0000	0.0000;
	63	1	0	0	0	0	1	1.01618975	-41.5263351	138	1	1.1	0.9	20.6500	0.3000	0.0000	0.0000;
	64	1	36.24	9.3	0	0	1	1.01580874	-41.5669645	138	1	1.1	0.9	20.6600	0.3000	0.0000	0.0000;
	65	1	46.26	6.82	0	0	1	1.01355532	-41.3761003	138	1	1.1	0.9	20.6400	0.3000	0.0000	0.0000;
	66	1	0	0	0	0	1	1.01355532	-41.3761003	13.8	1	1.1	0.9	20.6400	0.3000	0.0000	0.0000;
	67	1	0	0	0	0	1	1.01355532	-41.3761003	13.8	1	1.1	0.9	20.6400	0.3000	0.0000	0.0000;
	68	1	0	0	0	0	1	1.01355532	-41.3761003	1	1	1.1	0.9	20.6400	0.3000	0.0000	0.0000;
	69	1	58.86	14.48	0	0	1	1.02929248	-34.8115145	138	1	1.1	0.9	20.0200	0.1900	0.0000	0.0000;
	70	1	11.07	0.16	0	0	1	1.02082143	-40.6945401	138	1	1.1	0.9	20.5800	0.2800	0.0000	0.0000;
	71	1	38.37	10.34	0	0	1	1.02081589	-36.6739133	138	1	1.1	0.9	20.1700	0.1700	0.0000	0.0000;
	72	1	0	0	0	0	1	1.01616393	-36.7726507	138	1	1.1	0.9	20.1700	0.2100	0.0000	0.0000;
	73	1	38.37	20.18	0	0	1	1.01582525	-36.7934957	138	1	1.1	0.9	20.1800	0.2200	0.0000	0.0000;
	74	1	0	0	0	0	1	1.02469824	-35.1260742	138	1	1.1	0.9	20.0600	0.1900	0.0000	0.0000;
	75	1	14.72	4.64	0	0	1	1.0246158	-35.134309	138	1	1.1	0.9	20.0600	0.1900	0.0000	0.0000;
	76	1	27.96	2.98	0	0	1	1.02113437	-39.8444837	138	1	1.1	0.9	20.5300	0.2800	0.0000	0.0000;
	77	1	28.46	7.93	0	0	1	1.02210209	-36.567347	138	1	1.1	0.9	20.1900	0.2400	0.0000	0.0000;
	78	1	0	0	0	0	1	1.03728478	-35.9778212	345	1	1.1	0.9	20.2500	0.2400	0.0000	0.0000;
	79	1	55.86	12.51	0	0	1	1.0237927	-39.8676696	138	1	1.1	0.9	20.4100	0.3000	0.0000	0.0000;
	80	1	0	0	0	0	1	1.01302169	-45.4769583	24	1	1.1	0.9	20.6400	0.3500	0.0000	0.0000;
	81	1	0	0	0	0	1	1.01302169	-45.4769583	1	1	1.1	0.9	20.6400	0.3500	0.0000	0.0000;
	82	1	0	0	0	0	1	1.0200193	-40.7303956	138	1	1.1	0.9	20.5500	0.3000	0.0000	0.0000;
	83	1	22.32	8.77	0	0	1	1.01986668	-40.7420986	138	1	1.1	0.9	20.5500	0.3000	0.0000	0.0000;
	84	1	0	0	0	0	1	1.02742495	-39.7662497	138	1	1.1	0.9	19.9100	0.1200	0.0000	0.0000;
	85	1	40.86	5.87	0	0	1	1.02726759	-39.7916813	138	1	1.1	0.9	19.9100	0.1200	0.0000	0.0000;
	86	1	0	0	0	0	1	1.02756496	-39.7446235	138	1	1.1	0.9	19.9000	0.1200	0.0000	0.0000;
	87	1	10.87	8.58	0	0	1	1.01521174	-41.5049425	138	1	1.1	0.9	20.6900	0.2800	0.0000	0.0000;
	88	1	0	0	0	0	1	1.0280843	-41.0457424	138	1	1.1	0.9	20.5600	0.2600	0.0000	0.0000;
	89	1	33.23	4.19	0	0	1	1.02795636	-41.0653969	138	1	1.1	0.9	20.5700	0.2600	0.0000	0.0000;
	90	1	33.23	6.75	0	0	1	1.02139561	-41.1215636	138	1	1.1	0.9	20.6000	0.2900	0.0000	0.0000;
	91	1	37.67	4.7	0	0	1	1.02064972	-35.4111671	138	1	1.1	0.9	20.0500	0.2200	0.0000	0.0000;
	92	1	31.46	1.7	0	0	1	1.02053533	-36.6734094	138	1	1.1	0.9	20.2100	0.2500	0.0000	0.0000;
	93	1	31.46	11.16	0	0	1	1.02249852	-37.4220617	138	1	1.1	0.9	20.2700	0.2500	0.0000	0.0000;
	94	1	0	0	0	0	1	1.02029474	-40.040329	138	1	1.1	0.9	20.5300	0.2800	0.0000	0.0000;
	95	1	0	0	0	0	1	1.02038148	-40.0303255	138	1	1.1	0.9	20.5300	0.2800	0.0000	0.0000;
	96	1	18.02	4.43	0	0	1	1.02021328	-40.0502488	138	1	1.1	0.9	20.5400	0.2800	0.0000	0.0000;
	97	1	31.02	5.28	0	0	1	1.02210722	-35.9316913	138	1	1.1	0.9	20.0900	0.2300	0.0000	0.0000;
	98	1	19.84	5.6	0	0	1	1.01722596	-36.9801003	138	1	1.1	0.9	20.1900	0.2100	0.0000	0.0000;
	99	1	0	0	0	0	1	1.01734533	-36.9685132	138	1	1.1	0.9	20.1900	0.2100	0.0000	0.0000;
	100	1	0	0	0	0	1	1.03035769	-37.256492	138	1	1.1	0.9	20.2400	0.2400	0.0000	0.0000;
	101	1	0	0	0	0	1	1.03051327	-37.2383189	138	1	1.1	0.9	20.2400	0.2400	0.0000	0.0000;
	102	1	33.88	8.27	0	0	1	1.03017423	-37.2765196	138	1	1.1	0.9	20.2400	0.2500	0.0000	0.0000;
	103	1	0	0	0	0	1	1.02443111	-37.1358516	138	1	1.1	0.9	20.2500	0.2700	0.0000	0.0000;
	104	1	57.74	17.1	0	0	1	1.02409155	-37.1659013	138	1	1.1	0.9	20.2600	0.2700	0.0000	0.0000;
	105	1	0	0	0	0	1	1.02476068	-37.1029073	138	1	1.1	0.9	20.2500	0.2700	0.0000	0.0000;
	106	1	51.34	13.64	0	0	1	1.01061497	-41.4005171	138	1	1.1	0.9	20.2000	0.1600	0.0000	0.0000;
	107	1	26.95	1.82	0	0	1	1.02331421	-39.3083671	138	1	1.1	0.9	20.5100	0.2200	0.0000	0.0000;
	108	1	0	0	0	0	1	1.02339054	-39.2913998	138	1	1.1	0.9	20.5100	0.2200	0.0000	0.0000;
	109	1	0	0	0	0	1	1.02331421	-39.3083671	138	1	1.1	0.9	20.5100	0.2200	0.0000	0.0000;
	110	1	12.48	4.31	0	0	1	1.02583433	-35.4753306	138	1	1.1	0.9	20.0200	0.1400	0.0000	0.0000;
	111	1	0	0	0	0	1	1.02590711	-35.4684297	138	1	1.1	0.9	20.0200	0.1400	0.0000	0.0000;
	112	1	11.2	2.7	0	0	1	1.02354072	-36.1261917	138	1	1.1	0.9	20.1100	0.1600	0.0000	0.0000;
	113	1	0	0	0	0	1	1.02565786	-40.6614238	138	1	1.1	0.9	20.5300	0.2900	0.0000	0.0000;
	114	1	31.06	13.53	0	0	1	1.02544232	-40.6787067	138	1	1.1	0.9	20.5300	0.2900	0.0000	0.0000;
	115	1	31.06	11.74	0	0	1	1.02525967	-40.6329245	138	1	1.1	0.9	20.5200	0.3000	0.0000	0.0000;
	116	1	47.94	5.39	0	0	1	1.03474127	-35.4591332	138	1	1.1	0.9	20.0300	0.1600	0.0000	0.0000;
	117	1	0	0	0	0	1	1.03563312	-31.618125	345	1	1.1	0.9	19.9100	0.1100	0.0000	0.0000;
	118	1	45.39	21.63	0	0	1	1.03458271	-35.486018	138	1	1.1	0.9	20.0200	0.1700	0.0000	0.0000;
	119	1	0	0	0	0	1	1.03472348	-35.8446633	13.8	1	1.1	0.9	20.0300	0.1700	0.0000	0.0000;
	120	1	0	0	0	0	1	1.03472348	-35.8446633	1	1	1.1	0.9	20.0300	0.1700	0.0000	0.0000;
	121	1	0	0	0	0	1	1.01771621	-40.6420299	138	1	1.1	0.9	20.5500	0.3100	0.0000	0.0000;
	122	1	35.43	19.18	0	0	1	1.0174237	-40.6618135	138	1	1.1	0.9	20.5500	0.3100	0.0000	0.0000;
	123	1	0	0	0	0	1	1.01930415	-40.4645485	138	1	1.1	0.9	20.5100	0.3100	0.0000	0.0000;
	124	1	0	0	0	0	1	1.01945544	-40.4428416	138	1	1.1	0.9	20.5100	0.3100	0.0000	0.0000;
	125	1	35.43	7.06	0	0	1	1.01914731	-40.4859338	138	1	1.1	0.9	20.5100	0.3100	0.0000	0.0000;
	126	1	0	0	0	0	1	1.01930415	-40.4645485	138	1	1.1	0.9	20.5100	0.3100	0.0000	0.0000;
	127	1	0	0	0	0	1	1.02107927	-36.4421913	345	1	1.1	0.9	20.2800	0.2500	0.0000	0.0000;
	128	1	44.89	16.27	0	0	1	1.03446964	-40.3492031	138	1	1.1	0.9	20.4500	0.2400	0.0000	0.0000;
	129	1	50.09	14.75	0	0	1	1.03104393	-37.0628918	138	1	1.1	0.9	20.2200	0.2500	0.0000	0.0000;
	130	1	50.09	14.37	0	0	1	1.01689168	-36.7940278	138	1	1.1	0.9	20.2100	0.2800	0.0000	0.0000;
	131	1	0	0	0	0	1	1.02478521	-37.0712964	138	1	1.1	0.9	20.2400	0.2700	0.0000	0.0000;
	132	1	41.72	12.38	0	0	1	1.02454498	-37.0959235	138	1	1.1	0.9	20.2500	0.2700	0.0000	0.0000;
	133	1	0	0	0	0	1	1.02078315	-39.9893857	138	1	1.1	0.9	20.5500	0.2800	0.0000	0.0000;
	134	1	71.03	8.23	0	0	1	1.02050496	-40.0283578	138	1	1.1	0.9	20.5600	0.2800	0.0000	0.0000;
	135	1	61.01	13.93	0	0	1	1.03102931	-39.5581304	138	1	1.1	0.9	19.8600	0.1200	0.0000	0.0000;
	136	1	0	0	0	0	1	1.03133195	-39.5222599	138	1	1.1	0.9	19.8600	0.1200	0.0000	0.0000;
	137	1	20.07	5.15	0	0	1	1.02102	-35.765991	138	1	1.1	0.9	20.0800	0.2300	0.0000	0.0000;
	138	1	38.05	7.43	0	0	1	1.02272656	-41.1546894	138	1	1.1	0.9	20.5800	0.2800	0.0000	0.0000;
	139	1	35	8.78	0	0	1	1.06006467	-38.0498636	138	1	1.1	0.9	20.1700	0.1800	0.0000	0.0000;
	140	1	16.07	5.79	0	0	1	1.02104607	-40.6698904	138	1	1.1	0.9	20.5300	0.3100	0.0000	0.0000;
	141	1	41.11	16.66	0	0	1	1.0207552	-40.6934041	138	1	1.1	0.9	20.5300	0.3200	0.0000	0.0000;
	142	1	41.11	1.31	0	0	1	1.01773434	-40.9359893	138	1	1.1	0.9	20.5900	0.3300	0.0000	0.0000;
	143	1	0	0	0	0	1	1.01785247	-40.9103445	138	1	1.1	0.9	20.5800	0.3300	0.0000	0.0000;
	144	1	0	0	0	0	1	1.01773434	-40.9359893	138	1	1.1	0.9	20.5900	0.3300	0.0000	0.0000;
	145	1	37.97	9.24	0	0	1	1.01425651	-36.2083425	138	1	1.1	0.9	20.1600	0.2700	0.0000	0.0000;
	146	1	37.97	9.3	0	0	1	1.01547307	-36.7243241	138	1	1.1	0.9	20.2000	0.2900	0.0000	0.0000;
	147	1	0	0	0	0	1	1.01566711	-36.7015599	138	1	1.1	0.9	20.2000	0.2800	0.0000	0.0000;
	148	1	52.25	24.72	0	0	1	1.02187506	-37.1047379	138	1	1.1	0.9	20.2600	0.2700	0.0000	0.0000;
	149	1	0	0	0	0	1	1.02302223	-41.2547165	138	1	1.1	0.9	20.6100	0.2800	0.0000	0.0000;
	150	1	7.99	4.67	0	0	1	1.01436479	-42.0777045	18	1	1.1	0.9	20.6400	0.2900	0.0000	0.0000;
	151	1	11.73	1.24	0	0	1	1.0193634	-42.4064279	18	1	1.1	0.9	20.6500	0.2800	0.0000	0.0000;
	152	1	0	0	0	0	1	1.02207519	-41.40266	1	1	1.1	0.9	20.6100	0.2800	0.0000	0.0000;
	153	1	35.35	3.89	0	0	1	1.01865143	-37.1843207	138	1	1.1	0.9	20.2200	0.1900	0.0000	0.0000;
	154	1	33.06	13.11	0	0	1	1.05848321	-38.1909544	138	1	1.1	0.9	20.1900	0.1900	0.0000	0.0000;
	155	1	0	0	0	0	1	1.01717863	-37.1480923	138	1	1.1	0.9	20.2100	0.2100	0.0000	0.0000;
	156	1	33.52	4.02	0	0	1	1.01704887	-37.1675543	138	1	1.1	0.9	20.2100	0.2100	0.0000	0.0000;
	157	1	32.33	10.35	0	80	1	1.03522726	-40.3808079	138	1	1.1	0.9	20.4600	0.2300	0.0000	0.0000;
	158	1	0	0	0	0	1	1.03444223	-40.3519382	138	1	1.1	0.9	20.4500	0.2400	0.0000	0.0000;
	159	1	15.22	4.81	0	0	1	1.02761613	-40.3131727	138	1	1.1	0.9	20.4500	0.2700	0.0000	0.0000;
	160	1	55.26	20.75	0	0	1	1.01418767	-40.7970685	138	1	1.1	0.9	20.6000	0.3500	0.0000	0.0000;
	161	1	0	0	0	0	1	1.02091315	-43.1366529	138	1	1.1	0.9	20.9200	0.2400	0.0000	0.0000;
	162	1	25.6	5.53	0	0	1	1.02077676	-43.1518234	138	1	1.1	0.9	20.9200	0.2400	0.0000	0.0000;
	163	1	0	0	0	0	1	1.02103868	-43.1224143	138	1	1.1	0.9	20.9100	0.2400	0.0000	0.0000;
	164	1	26.64	6.54	0	0	1	1.01808356	-37.279213	138	1	1.1	0.9	20.2100	0.2000	0.0000	0.0000;
	165	1	0	0	0	0	1	1.0141673	-41.4639167	138	1	1.1	0.9	20.6200	0.3200	0.0000	0.0000;
	166	1	47.72	5.4	0	0	1	1.01398192	-41.4940501	138	1	1.1	0.9	20.6300	0.3200	0.0000	0.0000;
	167	1	32.36	10.77	0	0	1	1.03465975	-36.816619	138	1	1.1	0.9	20.1900	0.2300	0.0000	0.0000;
	168	1	32.36	10.63	0	0	1	1.02817536	-37.0276341	138	1	1.1	0.9	20.2200	0.2600	0.0000	0.0000;
	169	1	0	0	0	0	1	1.01912673	-37.3850126	138	1	1.1	0.9	20.2000	0.2100	0.0000	0.0000;
	170	1	14.51	0.92	0	0	1	1.01907973	-37.3932116	138	1	1.1	0.9	20.2000	0.2100	0.0000	0.0000;
	171	1	51.86	8.23	0	0	1	1.01646996	-40.3067753	138	1	1.1	0.9	20.4500	0.3100	0.0000	0.0000;
	172	1	0	0	0	0	1	1.01636402	-35.7295818	138	1	1.1	0.9	20.1200	0.2500	0.0000	0.0000;
	173	1	0	0	0	0	1	1.01652344	-35.7049282	138	1	1.1	0.9	20.1100	0.2500	0.0000	0.0000;
	174	1	41.08	5.55	0	0	1	1.01619607	-35.7559871	138	1	1.1	0.9	20.1200	0.2500	0.0000	0.0000;
	175	1	41.08	12.71	0	0	1	1.01848227	-35.0911208	138	1	1.1	0.9	20.0200	0.2300	0.0000	0.0000;
	176	1	0	0	0	0	1	1.01873666	-35.0662649	138	1	1.1	0.9	20.0200	0.2300	0.0000	0.0000;
	177	1	37	12.28	0	0	1	1.03509853	-36.5850965	138	1	1.1	0.9	20.1600	0.2300	0.0000	0.0000;
	178	1	37	6.33	0	0	1	1.01902943	-36.8982249	138	1	1.1	0.9	20.2300	0.2800	0.0000	0.0000;
	179	1	55.41	4.59	0	0	1	1.03058055	-39.7016644	138	1	1.1	0.9	19.8800	0.1200	0.0000	0.0000;
	180	1	1.46	0.56	0	0	1	1.02544373	-39.4758412	138	1	1.1	0.9	19.8700	0.1100	0.0000	0.0000;
	181	1	0	0	0	0	1	1.02561752	-39.4450908	138	1	1.1	0.9	19.8600	0.1100	0.0000	0.0000;
	182	1	55.41	4.8	0	0	1	1.0252801	-39.509276	138	1	1.1	0.9	19.8700	0.1100	0.0000	0.0000;
	183	1	48.59	5.25	0	0	1	1.01906966	-40.2377307	138	1	1.1	0.9	20.4400	0.3000	0.0000	0.0000;
	184	1	0	0	0	0	1	1.03820972	-40.0384537	138	1	1.1	0.9	20.4000	0.2300	0.0000	0.0000;
	185	1	68.06	27.25	0	0	1	1.0377181	-40.0755569	138	1	1.1	0.9	20.4100	0.2300	0.0000	0.0000;
	186	1	0	0	0	0	1	1.028185	-37.1454019	138	1	1.1	0.9	20.2500	0.2000	0.0000	0.0000;
	187	1	37.59	7.22	0	0	1	1.02800603	-37.1661786	138	1	1.1	0.9	20.2500	0.2000	0.0000	0.0000;
	188	1	51.74	17.55	0	0	1	1.01767353	-34.7341816	138	1	1.1	0.9	20.0100	0.1600	0.0000	0.0000;
	189	1	0	0	0	0	1	1.01800868	-34.7030543	138	1	1.1	0.9	20.0000	0.1600	0.0000	0.0000;
	190	1	0	0	0	0	1	1.01480335	-36.001517	138	1	1.1	0.9	20.1500	0.2700	0.0000	0.0000;
	191	1	63.47	6.05	0	0	1	1.01455127	-36.0400095	138	1	1.1	0.9	20.1500	0.2700	0.0000	0.0000;
	192	1	0	0	0	0	1	1.00559648	-33.6935004	345	1	1.1	0.9	20.0400	0.2000	0.0000	0.0000;
	193	1	63.47	25.63	0	0	1	1.0143731	-36.3768527	138	1	1.1	0.9	20.1600	0.2900	0.0000	0.0000;
	194	1	0	0	0	0	1	1.0143694	-36.3759536	24	1	1.1	0.9	20.1600	0.2900	0.0000	0.0000;
	195	1	0	0	0	0	1	1.0143694	-36.3759536	1	1	1.1	0.9	20.1600	0.2900	0.0000	0.0000;
	196	1	0	0	0	0	1	1.03921122	-33.8356203	345	1	1.1	0.9	20.0600	0.1900	0.0000	0.0000;
	197	1	0	0	0	0	1	1.06432806	-37.6776673	138	1	1.1	0.9	20.1200	0.1700	0.0000	0.0000;
	198	1	55.17	29.09	0	0	1	1.03876745	-33.8622793	345	1	1.1	0.9	20.0600	0.1900	0.0000	0.0000;
	199	1	25.51	11.27	0	0	1	1.01571475	-41.4746167	138	1	1.1	0.9	20.6300	0.3200	0.0000	0.0000;
	200	1	57.98	19.56	0	0	1	1.01944322	-40.5424425	138	1	1.1	0.9	20.4900	0.2900	0.0000	0.0000;
...
];

%%  PMU voltage data (confidence intervals around measurements)
%	bus_i	VR_MAX	VR_MIN	VI_MAX	VI_MIN
mpc.Vpmu = [
	2	0.792335	0.792335	-0.634826	-0.634826;
	4	0.83919	0.838112	-0.599574	-0.6004;
	13	0.830708	0.830708	-0.603105	-0.603105;
	14	0.826018	0.824803	-0.605806	-0.606632;
	15	0.825626	0.824536	-0.605861	-0.606648;
	18	0.822471	0.822471	-0.620421	-0.620421;
	23	0.845553	0.845553	-0.589273	-0.589273;
	24	0.829763	0.828687	-0.630454	-0.631315;
	26	0.736872	0.736872	-0.680419	-0.680419;
	27	0.736303	0.736303	-0.680293	-0.680293;
	31	0.830441	0.829273	-0.618796	-0.61963;
	38	0.813693	0.813693	-0.637066	-0.637066;
	42	0.845767	0.844612	-0.588308	-0.589113;
	46	0.822058	0.822058	-0.601394	-0.601394;
	50	0.822705	0.822705	-0.60131	-0.60131;
	59	0.855916	0.855916	-0.574304	-0.574304;
	60	0.818453	0.817337	-0.603216	-0.604061;
	61	0.786629	0.786629	-0.654033	-0.654033;
	63	0.761379	0.760248	-0.673233	-0.674147;
	64	0.760009	0.760009	-0.673984	-0.673984;
	65	0.760559	0.760559	-0.669959	-0.669959;
	66	0.760559	0.760559	-0.669959	-0.669959;
	67	0.760559	0.760559	-0.669959	-0.669959;
	74	0.838088	0.838088	-0.589588	-0.589588;
	79	0.785789	0.785789	-0.656268	-0.656268;
	84	0.790264	0.789261	-0.656759	-0.657718;
	86	0.790619	0.789613	-0.656582	-0.65747;
	89	0.775547	0.774509	-0.674853	-0.675753;
	91	0.832365	0.831235	-0.590943	-0.591768;
	96	0.781543	0.78042	-0.656057	-0.656984;
	97	0.827618	0.827618	-0.599793	-0.599793;
	98	0.812605	0.812605	-0.6119	-0.6119;
	103	0.816683	0.816683	-0.618456	-0.618456;
	104	0.816624	0.815553	-0.618227	-0.619086;
	106	0.758575	0.757504	-0.66791	-0.668806;
	110	0.835404	0.835404	-0.595345	-0.595345;
	116	0.842827	0.842827	-0.600276	-0.600276;
	119	0.838755	0.838755	-0.605923	-0.605923;
	120	0.838755	0.838755	-0.605923	-0.605923;
	123	0.775494	0.775494	-0.661505	-0.661505;
	125	0.775692	0.774621	-0.661222	-0.662152;
	126	0.775494	0.775494	-0.661505	-0.661505;
	131	0.817662	0.817662	-0.617749	-0.617749;
	134	0.781427	0.781427	-0.656355	-0.656355;
	136	0.795546	0.795546	-0.656317	-0.656317;
	140	0.775015	0.773888	-0.664985	-0.665947;
	141	0.773946	0.773946	-0.665544	-0.665544;
	145	0.818917	0.817727	-0.598784	-0.599575;
	149	0.769677	0.768567	-0.674145	-0.675036;
	152	0.766639	0.766639	-0.675946	-0.675946;
	156	0.810989	0.809822	-0.61407	-0.614916;
	166	0.759497	0.759497	-0.671806	-0.671806;
	171	0.775152	0.775152	-0.657534	-0.657534;
	172	0.82571	0.824411	-0.593142	-0.593895;
	173	0.826027	0.824825	-0.592886	-0.593683;
	174	0.824656	0.824656	-0.593798	-0.593798;
	176	0.833824	0.833824	-0.585288	-0.585288;
	178	0.814921	0.814921	-0.611821	-0.611821;
	179	0.792909	0.792909	-0.658325	-0.658325;
	181	0.792017	0.792017	-0.651614	-0.651614;
	184	0.794867	0.794867	-0.667882	-0.667882;
	185	0.794679	0.793552	-0.667548	-0.66856;
	186	0.819572	0.819572	-0.620859	-0.620859;
	192	0.836673	0.836673	-0.557855	-0.557855;
	195	0.817218	0.816192	-0.601144	-0.602005;
	204	0.767141	0.767141	-0.675427	-0.675427;
	207	0.776208	0.776208	-0.666355	-0.666355;
	208	0.783575	0.782419	-0.663126	-0.664124;
	209	0.786443	0.786443	-0.633581	-0.633581;
	213	0.863701	0.863701	-0.567259	-0.567259;
	220	0.780756	0.780756	-0.668886	-0.668886;
	223	0.794694	0.794694	-0.644343	-0.644343;
	231	0.802136	0.800958	-0.637391	-0.63824;
	232	0.777348	0.777348	-0.645845	-0.645845;
	235	0.750223	0.749271	-0.695418	-0.696446;
	236	0.74983	0.748769	-0.69563	-0.696532;
	238	0.812372	0.812372	-0.619865	-0.619865;
	241	0.800407	0.800407	-0.656745	-0.656745;
	245	0.864442	0.863184	-0.593547	-0.59427;
	248	0.755502	0.755502	-0.688727	-0.688727;
	251	0.777143	0.777143	-0.658703	-0.658703;
	255	0.77169	0.77169	-0.662489	-0.662489;
	256	0.774299	0.773279	-0.658106	-0.659067;
	257	0.773947	0.772849	-0.658199	-0.65901;
	265	0.788556	0.787511	-0.658381	-0.659386;
	274	0.795624	0.794613	-0.653268	-0.654171;
	276	0.805796	0.805796	-0.624452	-0.624452;
	285	0.777751	0.776755	-0.656555	-0.657427;
	288	0.782415	0.78139	-0.647925	-0.648928;
	289	0.798118	0.796913	-0.626292	-0.627156;
	294	0.787364	0.787364	-0.6389	-0.6389;
	295	0.788379	0.787386	-0.638227	-0.639109;
	302	0.799539	0.799539	-0.639397	-0.639397;
	306	0.796384	0.796384	-0.66409	-0.66409;
	307	0.801484	0.801484	-0.630727	-0.630727;
	310	0.800669	0.79954	-0.641847	-0.642824;
	312	0.770265	0.769078	-0.659598	-0.660637;
	313	0.770714	0.770714	-0.65998	-0.65998;
	324	0.781874	0.781874	-0.646882	-0.646882;
	328	0.790184	0.789122	-0.657062	-0.657988;
	331	0.810622	0.810622	-0.658288	-0.658288;
	341	0.797141	0.795999	-0.632869	-0.633772;
	345	0.792842	0.792842	-0.626819	-0.626819;
	361	0.798825	0.798825	-0.633832	-0.633832;
	364	0.784441	0.784441	-0.639202	-0.639202;
	366	0.807287	0.807287	-0.63002	-0.63002;
	372	0.775439	0.775439	-0.6544	-0.6544;
	384	0.804275	0.804275	-0.658335	-0.658335;
	386	0.80281	0.801596	-0.626466	-0.627461;
	388	0.793892	0.792865	-0.634568	-0.635485;
	389	0.792388	0.792388	-0.635219	-0.635219;
	390	0.797617	0.796493	-0.632455	-0.633289;
	392	0.774604	0.773559	-0.658302	-0.659264;
	393	0.777397	0.777397	-0.653059	-0.653059;
	394	0.791175	0.791175	-0.639097	-0.639097;
	405	0.802337	0.801173	-0.631289	-0.632167;
	413	0.78154	0.780465	-0.631939	-0.632759;
	417	0.780247	0.780247	-0.649397	-0.649397;
	420	0.819906	0.819906	-0.636111	-0.636111;
	422	0.778008	0.778008	-0.657188	-0.657188;
	423	0.777612	0.777612	-0.657376	-0.657376;
	424	0.783249	0.782204	-0.648475	-0.649328;
	426	0.793794	0.792693	-0.639392	-0.640289;
	427	0.827084	0.827084	-0.585428	-0.585428;
	428	0.814127	0.814127	-0.639764	-0.639764;
	438	0.781033	0.779967	-0.658244	-0.659226;
	444	0.827964	0.82673	-0.592763	-0.593695;
	445	0.804958	0.803973	-0.647559	-0.648437;
	446	0.805052	0.805052	-0.647741	-0.647741;
	453	0.775677	0.775677	-0.658652	-0.658652;
	455	0.775677	0.775677	-0.658652	-0.658652;
	457	0.823908	0.823908	-0.600106	-0.600106;
	458	0.820597	0.819463	-0.637339	-0.638212;
	460	0.828694	0.828694	-0.632482	-0.632482;
	463	0.805208	0.805208	-0.625701	-0.625701;
	464	0.782928	0.78175	-0.659889	-0.660761;
	471	0.819253	0.819253	-0.605962	-0.605962;
	472	0.819537	0.81836	-0.605781	-0.6067;
	474	0.80656	0.80656	-0.623869	-0.623869;
	476	0.840617	0.840617	-0.574295	-0.574295;
	477	0.800214	0.800214	-0.642274	-0.642274;
	484	0.799934	0.798835	-0.643671	-0.644551;
	493	0.847816	0.847816	-0.591749	-0.591749;
	498	0.824785	0.824785	-0.610444	-0.610444;
	503	0.79673	0.79673	-0.624277	-0.624277;
	506	0.804809	0.804809	-0.620723	-0.620723;
	507	0.805122	0.80406	-0.620468	-0.621293;
	518	0.859905	0.858681	-0.535154	-0.535916;
	519	0.871765	0.87051	-0.525505	-0.526294;
	524	0.879421	0.878259	-0.534205	-0.534896;
	525	0.84448	0.84448	-0.56573	-0.56573;
	534	0.945381	0.945381	-0.413859	-0.413859;
	538	0.902052	0.902052	-0.502761	-0.502761;
	540	0.909485	0.908205	-0.478681	-0.479359;
	544	0.903899	0.903899	-0.482893	-0.482893;
	554	0.935558	0.934165	-0.435464	-0.436035;
	558	0.931595	0.930367	-0.434522	-0.435125;
	559	0.932234	0.930877	-0.432945	-0.433544;
	563	0.956273	0.956273	-0.384231	-0.384231;
	574	0.951813	0.951813	-0.386184	-0.386184;
	576	0.946227	0.944722	-0.435036	-0.43557;
	579	0.95407	0.95407	-0.398574	-0.398574;
	580	0.95395	0.95395	-0.398659	-0.398659;
	582	0.957675	0.956299	-0.398857	-0.399413;
	585	0.947089	0.947089	-0.422451	-0.422451;
	586	0.956938	0.956938	-0.391018	-0.391018;
	589	0.948706	0.948706	-0.38423	-0.38423;
	591	0.955609	0.955609	-0.380803	-0.380803;
	594	0.961425	0.960067	-0.366778	-0.367249;
	595	0.961461	0.961461	-0.389847	-0.389847;
	596	0.961267	0.961267	-0.390006	-0.390006;
	601	0.959817	0.959817	-0.369051	-0.369051;
	603	0.938267	0.938267	-0.382465	-0.382465;
	607	0.958197	0.958197	-0.372257	-0.372257;
	608	0.958925	0.958925	-0.371696	-0.371696;
	611	0.971419	0.971419	-0.368196	-0.368196;
	612	0.971975	0.970631	-0.368112	-0.368628;
	614	0.962734	0.962734	-0.379575	-0.379575;
	615	0.95145	0.950105	-0.383565	-0.384172;
	617	0.972246	0.970857	-0.367583	-0.368108;
	618	0.957239	0.955866	-0.378021	-0.378551;
	622	0.975507	0.975507	-0.338203	-0.338203;
	624	0.981482	0.981482	-0.309517	-0.309517;
	625	0.981375	0.981375	-0.309631	-0.309631;
	626	0.939057	0.939057	-0.382049	-0.382049;
	627	0.963603	0.963603	-0.35309	-0.35309;
	632	0.913259	0.911839	-0.391128	-0.391729;
	633	0.92591	0.92452	-0.391577	-0.392111;
	637	0.897343	0.896244	-0.404987	-0.405506;
	638	0.936686	0.936686	-0.405101	-0.405101;
	639	0.906256	0.906256	-0.407779	-0.407779;
	643	0.938061	0.938061	-0.404041	-0.404041;
	655	0.940641	0.940641	-0.404486	-0.404486;
	663	0.952776	0.952776	-0.319961	-0.319961;
	664	0.950305	0.950305	-0.3215	-0.3215;
	667	0.927933	0.927933	-0.384344	-0.384344;
	674	0.915937	0.915937	-0.397958	-0.397958;
	676	0.934249	0.934249	-0.38106	-0.38106;
	678	0.928151	0.928151	-0.386346	-0.386346;
	680	0.97677	0.975494	-0.376435	-0.376958;
...
];

%% PMU current injection data (confidence intervals around measurements)
%	bus_i	IR_MAX	IR_MIN	II_MAX	II_MIN
mpc.Ipmu = [
	2	-0.0856341	-0.0856341	0.144841	0.144841;
	4	6.27026e-10	-7.09181e-10	7.58953e-10	-6.37506e-10;
	13	-0.283516	-0.283516	0.567696	0.567696;
	14	6.53591e-10	-7.16254e-10	6.2528e-10	-7.11017e-10;
	15	-0.128497	-0.128686	0.237698	0.237334;
	18	-0.153437	-0.153437	0.191004	0.191004;
	23	     0	0	     0	0;
	24	-0.283409	-0.283824	0.324215	0.323785;
	26	-0.102997	-0.102997	0.162554	0.162554;
	27	     0	0	     0	0;
	31	-0.266438	-0.266809	0.285674	0.285247;
	38	-0.200224	-0.200224	0.318616	0.318616;
	42	-0.408652	-0.409275	0.419518	0.418968;
	46	     0	0	     0	0;
	50	     0	0	     0	0;
	59	     0	0	     0	0;
	60	-0.186247	-0.186504	0.475586	0.474913;
	61	-0.266938	-0.266938	0.459792	0.459792;
	63	7.44317e-10	-7.17612e-10	7.87714e-10	-6.25423e-10;
	64	-0.206176	-0.206176	0.305206	0.305206;
	65	-0.298009	-0.298009	0.352181	0.352181;
	66	     0	0	     0	0;
	67	     0	0	     0	0;
	74	     0	0	     0	0;
	79	-0.340449	-0.340449	0.443537	0.443537;
	84	7.33694e-10	-7.06358e-10	7.74244e-10	-6.89582e-10;
	86	6.06994e-10	-6.96389e-10	6.27497e-10	-6.56906e-10;
	89	-0.216808	-0.217116	0.243247	0.242923;
	91	-0.273913	-0.274322	0.251583	0.251207;
	96	-0.107198	-0.107334	0.146983	0.146798;
	97	-0.215428	-0.215428	0.219923	0.219923;
	98	-0.122691	-0.122691	0.161302	0.161302;
	103	     0	0	     0	0;
	104	-0.348147	-0.348685	0.473963	0.4733;
	106	-0.291571	-0.29201	0.437476	0.436884;
	110	-0.0746901	-0.0746901	0.104819	0.104819;
	116	-0.347156	-0.347156	0.311202	0.311202;
	119	     0	0	     0	0;
	120	     0	0	     0	0;
	123	     0	0	     0	0;
	125	-0.219268	-0.219577	0.278572	0.278194;
	126	     0	0	     0	0;
	131	     0	0	     0	0;
	134	-0.481098	-0.481098	0.509415	0.509415;
	136	     0	0	     0	0;
	140	-0.0823689	-0.0824802	0.145687	0.145485;
	141	-0.198946	-0.198946	0.386341	0.386341;
	145	-0.248071	-0.248435	0.294874	0.294446;
	149	7.59908e-10	-6.48693e-10	7.55334e-10	-7.48352e-10;
	152	     0	0	     0	0;
	156	-0.238572	-0.238913	0.230758	0.230438;
	166	-0.317222	-0.317222	0.351695	0.351695;
	171	-0.336697	-0.336697	0.391781	0.391781;
	172	7.4521e-10	-7.41475e-10	7.30016e-10	-6.26363e-10;
	173	7.62125e-10	-7.49342e-10	7.9393e-10	-6.72232e-10;
	174	-0.296143	-0.296143	0.28054	0.28054;
	176	     0	0	     0	0;
	178	-0.253069	-0.253069	0.267674	0.267674;
	179	-0.385214	-0.385214	0.377717	0.377717;
	181	     0	0	     0	0;
	184	     0	0	     0	0;
	185	-0.332584	-0.333044	0.623587	0.622724;
	186	     0	0	     0	0;
	192	     0	0	     0	0;
	195	7.53935e-10	-6.99552e-10	7.93948e-10	-7.02161e-10;
	204	-0.0764864	-0.0764864	0.100713	0.100713;
	207	-0.25818	-0.25818	0.310793	0.310793;
	208	-0.137977	-0.138168	0.20146	0.201157;
	209	-0.320026	-0.320026	0.887366	0.887366;
	213	     0	0	     0	0;
	220	     0	0	     0	0;
	223	-0.0533449	-0.0533449	0.0802478	0.0802478;
	231	-0.299328	-0.299766	0.436221	0.435561;
	232	-0.29578	-0.29578	0.392782	0.392782;
	235	6.56822e-10	-7.81224e-10	7.89091e-10	-6.44981e-10;
	236	-0.181133	-0.181397	0.34588	0.345329;
	238	-0.210787	-0.210787	0.263869	0.263869;
	241	-0.316691	-0.316691	0.386785	0.386785;
	245	-0.223794	-0.224128	0.254645	0.254299;
	248	-0.120392	-0.120392	0.505779	0.505779;
	251	-0.284852	-0.284852	0.529418	0.529418;
	255	     0	0	     0	0;
	256	7.54496e-10	-6.06674e-10	7.48217e-10	-6.39996e-10;
	257	-0.102007	-0.102154	0.249865	0.249539;
	265	7.80178e-10	-6.1268e-10	7.39005e-10	-6.63127e-10;
	274	-0.147564	-0.147769	0.196396	0.19612;
	276	-0.265701	-0.265701	0.347504	0.347504;
	285	-0.169138	-0.169388	0.165462	0.165222;
	288	-0.311823	-0.312243	0.381521	0.380981;
	289	-0.226646	-0.226954	0.22603	0.225713;
	294	-0.329047	-0.329047	0.423728	0.423728;
	295	7.7823e-10	-7.42983e-10	7.15819e-10	-6.54888e-10;
	302	     0	0	     0	0;
	306	-0.2928	-0.2928	0.564861	0.564861;
	307	-0.247637	-0.247637	0.456018	0.456018;
	310	-0.264841	-0.265205	0.28236	0.281999;
	312	-0.161148	-0.161375	0.425445	0.424907;
	313	     0	0	     0	0;
	324	-0.217248	-0.217248	0.236271	0.236271;
	328	-0.345305	-0.345772	0.386919	0.386328;
	331	     0	0	     0	0;
	341	7.20448e-10	-6.81804e-10	7.40644e-10	-7.84714e-10;
	345	     0	0	     0	0;
	361	-0.376455	-0.376455	0.376564	0.376564;
	364	     0	0	     0	0;
	366	-0.274888	-0.274888	0.359333	0.359333;
	372	-0.272066	-0.272066	0.298334	0.298334;
	384	-0.179701	-0.179701	0.608005	0.608005;
	386	7.1355e-10	-7.64326e-10	7.66659e-10	-6.16482e-10;
	388	6.00948e-10	-7.13488e-10	6.25384e-10	-7.49673e-10;
	389	-0.196708	-0.196708	0.403531	0.403531;
	390	-0.166565	-0.166824	0.186958	0.186687;
	392	-0.175521	-0.175787	0.180363	0.180097;
	393	-0.256332	-0.256332	0.276435	0.276435;
	394	-0.230873	-0.230873	0.308465	0.308465;
	405	7.67313e-10	-6.68354e-10	7.51235e-10	-6.74304e-10;
	413	-0.40411	-0.404651	0.47124	0.470659;
	417	-0.316825	-0.316825	0.295349	0.295349;
	420	-0.182803	-0.182803	0.412221	0.412221;
	422	     0	0	     0	0;
	423	-0.24113	-0.24113	0.307882	0.307882;
	424	6.21172e-10	-7.52685e-10	6.02203e-10	-6.15933e-10;
	426	-0.412976	-0.413593	0.459517	0.458872;
	427	     0	0	     0	0;
	428	     0	0	     0	0;
	438	-0.261696	-0.262039	0.352469	0.351955;
	444	6.86019e-10	-6.83266e-10	7.2742e-10	-6.18446e-10;
	445	-0.353936	-0.354466	0.482304	0.481703;
	446	     0	0	     0	0;
	453	-0.282177	-0.282177	0.431825	0.431825;
	455	     0	0	     0	0;
	457	-0.131645	-0.131645	0.110208	0.110208;
	458	-0.453903	-0.454557	0.515866	0.515199;
	460	-0.443741	-0.443741	0.527406	0.527406;
	463	-0.396686	-0.396686	0.519874	0.519874;
	464	-0.213744	-0.214044	0.373173	0.372676;
	471	     0	0	     0	0;
	472	6.12011e-10	-7.31105e-10	6.29071e-10	-6.01277e-10;
	474	-0.245507	-0.245507	0.269743	0.269743;
	476	-0.0461848	-0.0461848	0.0523707	0.0523707;
	477	-0.178535	-0.178535	0.285134	0.285134;
	484	-0.319983	-0.32048	0.302661	0.302241;
	493	     0	0	     0	0;
	498	     0	0	     0	0;
	503	-0.249299	-0.249299	0.218934	0.218934;
	506	     0	0	     0	0;
	507	-0.189325	-0.189572	0.169171	0.168954;
	518	-0.0395616	-0.0396183	0.0319149	0.0318644;
	519	-0.096059	-0.0961789	0.0813751	0.0812717;
	524	-0.175796	-0.17604	0.147518	0.147305;
	525	-0.0817306	-0.0817306	0.250968	0.250968;
	534	     0	0	     0	0;
	538	     0	0	     0	0;
	540	-0.297913	-0.298309	0.192122	0.191875;
	544	     0	0	     0	0;
	554	-0.265884	-0.26623	0.157719	0.15749;
	558	-0.294022	-0.294468	0.246608	0.246267;
	559	-0.270697	-0.271074	0.213085	0.212813;
	563	     0	0	     0	0;
	574	-0.251717	-0.251717	0.199418	0.199418;
	576	-0.0770227	-0.0771252	0.100278	0.100139;
	579	     0	0	     0	0;
	580	-0.100351	-0.100351	0.0859643	0.0859643;
	582	-0.109285	-0.109438	0.080358	0.0802391;
	585	-0.368269	-0.368269	0.302797	0.302797;
	586	     0	0	     0	0;
	589	-0.391346	-0.391346	0.36678	0.36678;
	591	     0	0	     0	0;
	594	-0.186641	-0.186896	0.266814	0.26642;
	595	-0.0211788	-0.0211788	0.0142039	0.0142039;
	596	-0.174491	-0.174491	0.135813	0.135813;
	601	-0.500347	-0.500347	0.28386	0.28386;
	603	     0	0	     0	0;
	607	-0.655136	-0.655136	0.511877	0.511877;
	608	     0	0	     0	0;
	611	     0	0	     0	0;
	612	6.13537e-10	-7.32672e-10	6.07898e-10	-7.68281e-10;
	614	-0.123038	-0.123038	0.0786326	0.0786326;
	615	6.18122e-10	-6.4739e-10	6.06152e-10	-7.15334e-10;
	617	-0.220012	-0.220309	0.117505	0.117344;
	618	-0.0872884	-0.0874064	0.0842619	0.0841498;
	622	-0.143859	-0.143859	0.0803209	0.0803209;
	624	     0	0	     0	0;
	625	-0.114358	-0.114358	0.0741906	0.0741906;
	626	-0.106991	-0.106991	0.0526869	0.0526869;
	627	-0.285358	-0.285358	0.171707	0.171707;
	632	-0.194762	-0.195031	0.100098	0.0999709;
	633	-0.317041	-0.317483	0.371247	0.370706;
	637	-0.413826	-0.414379	0.54065	0.539885;
	638	-0.352387	-0.352387	0.433285	0.433285;
	639	-0.416934	-0.416934	0.313286	0.313286;
	643	-0.126615	-0.126615	0.10773	0.10773;
	655	-0.326145	-0.326145	0.299924	0.299924;
	663	     0	0	     0	0;
	664	     0	0	     0	0;
	667	-0.0794142	-0.0794142	0.0546617	0.0546617;
	674	     0	0	     0	0;
	676	     0	0	     0	0;
	678	-0.18919	-0.18919	0.135638	0.135638;
	680	7.34817e-10	-7.40183e-10	6.42876e-10	-7.84157e-10;
...
];

%% RTU injection data (confidence intervals around measurements)
%	bus_i	P_MIN	P_MAX	Q_MIN	Q_MAX	V_MIN	V_MAX
mpc.RTU = [
	1	-0.100116	-0.0934721783	-0.0264035	-0.0244030195	1.00590416	1.0133908;
	3	-0.149651	-0.138606913	-0.0112766	-0.0105373239	1.02686423	1.03374893;
	5	-0.107863	-0.10052873	-0.028335	-0.0264628466	1.02792239	1.03505016;
	6	 -0.13846	-0.129415962	-0.013194	-0.0123981856	1.02289419	1.02970294;
	9	-0.174108	-0.161871294	-0.0268089	-0.0248714759	1.02073437	1.02741867;
	10	-0.347751	-0.322731092	-0.156221	-0.145834412	1.01747278	1.02502277;
	11	-0.331201	-0.309890452	-0.084568	-0.0788964726	1.00140962	1.00893739;
	17	-0.267395	-0.250154765	-0.0739613	-0.0689884415	1.01644166	1.02367228;
	20	-0.553443	-0.514549573	-0.0471243	-0.0439304506	1.01087963	1.01796582;
	21	-0.0932623	-0.087036487	-0.0220126	-0.0204796879	1.02882183	1.03593416;
	22	-0.499123	-0.463127692	 -0.16513	-0.153350272	1.03442706	1.04253283;
	25	-0.319292	-0.299573997	-0.132208	-0.123498922	1.02670483	1.03381806;
	28	-0.333458	-0.310924541	-0.131887	-0.122644972	0.99903358	1.00545292;
	29	-0.333802	-0.30969016	-0.0191836	-0.0178216461	1.00370365	1.01028933;
	32	-0.428118	-0.398520822	-0.0586788	-0.0548568289	1.02557999	1.03183954;
	33	-0.613888	-0.567646736	-0.0719848	-0.0670961639	1.0264334	1.03425454;
	35	-0.611609	-0.570758922	-0.439548	-0.413494122	1.02608727	1.03325764;
	37	 -0.60573	-0.562712373	-0.117309	-0.108707812	1.02503113	1.03215612;
	40	-0.452996	-0.420284074	 -0.14161	-0.131635659	1.02422578	1.03118916;
	41	-0.207271	-0.19394519	-0.102997	-0.096313026	1.02091685	1.02851479;
	44	-0.388818	-0.360559277	-0.0179632	-0.0168162579	1.00976575	1.01680962;
	45	-0.263144	-0.243364935	-0.133471	-0.124421729	1.02044058	1.02824847;
	47	-0.473117	-0.441420612	-0.061656	-0.0570481172	1.0145018	1.02148494;
	48	-0.473261	-0.441672905	-0.106248	-0.0988694318	1.01548071	1.0222567;
	52	-0.180815	-0.168445532	-0.0201348	-0.0187072288	1.00105218	1.00800028;
	53	-0.452276	-0.422982081	-0.0471876	-0.0441645115	1.01900286	1.0255173;
	54	-0.448191	-0.419460159	-0.167053	-0.155603812	1.00002415	1.00669498;
	55	-0.182636	-0.169041147	-0.053416	-0.0500267144	1.01849993	1.02471656;
	58	-0.454407	-0.422859546	-0.0844636	-0.0783861416	1.01481584	1.02195123;
	69	-0.609298	-0.565154068	-0.150036	-0.139508405	1.02601883	1.03257122;
	70	-0.114468	-0.106623726	-0.00164924	-0.00154693931	1.0168242	1.02485892;
	71	-0.395555	-0.371754469	-0.106879	-0.0994452444	1.01717542	1.02418048;
	73	-0.398826	-0.37159285	-0.209594	-0.194666514	1.01194946	1.01967488;
	75	-0.152353	-0.141783439	-0.0478748	-0.0445758071	1.02062316	1.02869003;
	76	-0.288576	-0.269214524	-0.0308084	-0.0286215704	1.01739052	1.02436091;
	77	-0.295239	-0.273755074	-0.0820841	-0.0762553114	1.01853064	1.02558223;
	83	-0.230081	-0.215965787	-0.0911124	-0.084750673	1.01678923	1.0236453;
	85	-0.421449	-0.39298843	-0.0608999	-0.0567793679	1.02405826	1.03121113;
	87	-0.112173	-0.105374075	-0.0887794	-0.0826620837	1.01121562	1.01896956;
	90	-0.342871	-0.322155708	-0.0696326	-0.0650230185	1.01743318	1.02482106;
	92	-0.325128	-0.303390268	-0.0175277	-0.0163432869	1.01689628	1.02407013;
	93	-0.324998	-0.304051881	-0.115549	-0.107866861	1.01884045	1.02603525;
	102	-0.349095	-0.32788225	-0.0853018	-0.0800693011	1.02671084	1.03424078;
	107	-0.278877	-0.259124132	-0.0189124	-0.0176493607	1.01939206	1.02665973;
	112	-0.116103	-0.108164684	-0.0279699	-0.0260191653	1.01957074	1.0273098;
	114	-0.322471	-0.298847813	-0.140662	-0.130119844	1.02143596	1.02866597;
	115	-0.320379	-0.298307298	-0.121623	-0.113576423	1.02146337	1.02877907;
	118	-0.467889	-0.437828063	-0.223489	-0.208076953	1.03130892	1.03797398;
	122	-0.367826	-0.340660354	-0.199297	-0.184508919	1.01336202	1.02092124;
	128	-0.463212	-0.431997618	-0.168067	-0.156820335	1.03050412	1.03801327;
	129	-0.518233	-0.485170693	-0.153212	-0.142648459	1.02741097	1.03421527;
	130	-0.519015	-0.482500157	-0.149035	-0.138771489	1.01286516	1.02024381;
	132	-0.431132	-0.404447484	-0.128361	-0.119872842	1.02111476	1.02789964;
	135	-0.628843	-0.588410747	-0.143511	-0.134485107	1.02731445	1.03433125;
	137	-0.206826	-0.192866663	-0.0533193	-0.0496674602	1.01738783	1.02454812;
	138	-0.394386	-0.367034238	-0.0765851	-0.0714319517	1.01868643	1.02580818;
	139	-0.362327	-0.338603956	-0.090819	-0.0843566388	1.05683329	1.06360783;
	142	-0.424192	-0.3968743	-0.0136039	-0.0126584781	1.01443794	1.02180155;
	146	-0.392076	-0.364937528	-0.0966049	-0.0897217651	1.01147902	1.01929468;
	148	 -0.53961	-0.50488549	-0.256268	-0.238376878	1.01831248	1.02572407;
	150	-0.0823248	-0.077189737	-0.0485108	-0.0448544842	1.01061738	1.01755475;
	151	-0.121676	-0.113551883	-0.0128033	-0.0119984273	1.01528977	1.02280381;
	153	-0.366078	-0.339485733	-0.0400975	-0.0373721943	1.01499889	1.02268477;
	154	-0.341161	-0.319288278	-0.135514	-0.12613813	1.05457395	1.06168416;
	157	-0.335375	-0.312301431	-0.107311	-0.0995945987	1.03190911	1.03867947;
	159	-0.156816	-0.14754635	-0.0495612	-0.04649237	1.02360623	1.03163291;
	160	-0.569217	-0.534675341	-0.214521	-0.199708824	1.01100024	1.01806547;
	162	-0.263768	-0.24604494	-0.0573234	-0.0533535194	1.01670786	1.02435461;
	164	 -0.27661	-0.256327542	-0.0677003	-0.0631812537	1.01428543	1.02204139;
	167	-0.334134	-0.313104593	-0.111978	-0.104100566	1.03117656	1.03859947;
	168	-0.336418	-0.313089488	-0.110374	-0.102929097	1.02494901	1.03180131;
	170	-0.149891	-0.139859217	-0.00949594	-0.00884996175	1.0154149	1.02248077;
	175	-0.426815	-0.397438359	-0.131297	-0.123105026	1.01537367	1.02192875;
	177	 -0.38438	-0.358355378	-0.127506	-0.118335635	1.03136927	1.03861975;
	180	-0.0151532	-0.0141116553	-0.00579989	-0.00540648223	1.02178101	1.02857268;
	182	-0.572214	-0.536590751	-0.0497691	-0.0460881654	1.02141721	1.02927955;
	183	-0.500676	-0.470882261	-0.0545635	-0.0508588258	1.01519679	1.02283209;
	187	-0.388347	-0.361646907	-0.0744915	-0.0694272295	1.02455552	1.03164864;
	188	-0.534932	-0.498573364	-0.181451	-0.169208454	1.01419242	1.02157054;
	191	-0.658374	-0.614264046	-0.0627592	-0.0586710705	1.01123748	1.01814108;
	193	-0.659486	-0.614288378	-0.265605	-0.246423816	1.01118286	1.01804495;
	198	-0.569091	-0.53152624	-0.301543	-0.27973995	1.03554906	1.04228814;
	199	-0.263527	-0.246705774	-0.116733	-0.108457294	1.01183837	1.01915122;
	200	-0.602599	-0.561237129	-0.201876	-0.188010684	1.01635764	1.02317781;
	201	-0.470503	-0.436408575	-0.0814145	-0.0758183232	1.01757657	1.02494664;
	202	-0.225038	-0.210070496	-0.0346644	-0.0320754562	1.01933326	1.02660374;
	206	-0.419851	-0.391345083	-0.0868384	-0.0813687624	1.00981725	1.01699306;
	210	-0.511642	-0.479448086	-0.106812	-0.0991012097	1.02230434	1.0295331;
	211	-0.511394	-0.47731289	-0.115199	-0.106561192	1.01686713	1.02450293;
	214	-0.129739	-0.120525554	-0.0345572	-0.0323110355	1.02998967	1.03735384;
	215	-0.375713	-0.350009476	-0.0344287	-0.0322711448	1.01976292	1.02652645;
	217	-0.378268	-0.351757061	-0.0323878	-0.0300691022	1.01765293	1.02444535;
	218	-0.316077	-0.295112443	-0.0668248	-0.0622263415	1.02598894	1.03248589;
	219	-0.396756	-0.369681792	 -0.11507	-0.107897897	1.02419395	1.03102855;
	221	 -0.39665	-0.372626837	-0.0738096	-0.069084718	1.01721472	1.02441791;
	225	-0.369624	-0.343303295	-0.243562	-0.227015696	1.01218196	1.01928316;
	226	-0.369596	-0.343673637	-0.197103	-0.183780133	1.00929169	1.01631147;
	227	 -0.48769	-0.455910309	-0.138613	-0.1299295	1.01941317	1.02592169;
	228	-0.554789	-0.514967441	-0.207423	-0.191768088	1.0292114	1.03615486;
	229	-0.365237	-0.342810465	-0.0488259	-0.0452616177	1.02821126	1.03594183;
	230	-0.533909	-0.499672065	-0.110731	-0.103171667	1.02158332	1.0286712;
	234	-0.391351	-0.361851606	-0.0394954	-0.0369703256	1.02208765	1.02924749;
	237	-0.346641	-0.322490429	-0.0637596	-0.0596130473	1.01814307	1.02555248;
	239	-0.516532	-0.481723802	-0.101997	-0.095204312	1.03078519	1.03784805;
	243	 -0.47492	-0.439767069	-0.0577979	-0.0542800288	1.02744806	1.03375209;
	244	-0.356657	-0.333551729	-0.0586119	-0.0544416772	1.04397065	1.05140523;
	247	-0.424209	-0.395713346	-0.0409613	-0.0380441479	1.00824376	1.0149823;
	249	 -0.52189	-0.489428277	-0.0576282	-0.0538202936	1.01816651	1.02499626;
	250	-0.591648	-0.550247731	-0.132802	-0.124533625	1.01143436	1.01811343;
	252	-0.322859	-0.299380804	-0.0975286	-0.0909300267	1.01427062	1.0214117;
	254	-0.321202	-0.301445737	-0.202782	-0.187776697	1.01298583	1.01998322;
	259	-0.502925	-0.467754799	-0.0834496	-0.0773588507	1.01177434	1.01841104;
	260	 -0.31485	-0.29125741	-0.127519	-0.119508947	1.03037889	1.03783993;
	262	-0.568999	-0.528025924	-0.125188	-0.116104906	1.01435782	1.02225047;
	263	-0.368991	-0.344984786	-0.0988285	-0.0916627355	1.04958704	1.05698517;
	266	-0.512528	-0.481588328	-0.0247346	-0.0230113565	1.0233675	1.03071631;
	267	 -0.24101	-0.224255801	-0.0423934	-0.0397202778	1.00007533	1.00719173;
	269	-0.554011	-0.515628726	-0.142064	-0.132618594	1.01358585	1.02131327;
	271	-0.553286	-0.516117967	-0.0737776	-0.06916798	1.02573325	1.03308164;
	272	-0.570234	-0.530007907	-0.0804216	-0.0751005087	1.01330628	1.02070248;
	273	 -0.57013	-0.529419052	-0.212192	-0.197766881	1.01363226	1.02148477;
	277	-0.464288	-0.431537536	-0.212157	-0.198338447	1.01192256	1.01842878;
	279	-0.295464	-0.276684943	-0.0829341	-0.0773165902	1.01469538	1.02117646;
	283	 -0.34206	-0.317484528	-0.0812922	-0.0763509003	1.03052497	1.03796045;
	286	-0.550812	-0.517672603	-0.186883	-0.174002104	1.01933933	1.02637859;
	290	-0.334385	-0.31008712	-0.0438166	-0.0408808708	1.00963158	1.01659436;
	292	-0.513757	-0.480639224	-0.0324164	-0.0302665133	1.01571304	1.02268877;
	293	-0.545834	-0.50974183	-0.293474	-0.274626915	1.00746104	1.01469348;
	296	 -0.58588	-0.547089445	-0.0739751	-0.0690209999	1.01090535	1.01770751;
	299	-0.427724	-0.399047882	-0.297494	-0.275740197	1.00667241	1.01363911;
	301	-0.525495	-0.487892737	-0.0787457	-0.0733194567	1.02217836	1.02938514;
	305	-0.495982	-0.463113714	-0.200506	-0.188078194	1.01969416	1.02685755;
	309	-0.407421	-0.379117072	-0.141498	-0.131357353	1.02508662	1.0316584;
	314	 -0.41931	-0.389726395	-0.0832546	-0.0774163284	1.02207448	1.02942558;
	315	-0.459367	-0.428399291	-0.0883834	-0.0824130683	1.01956986	1.02641295;
	316	-0.461066	-0.430175429	-0.0778028	-0.072293079	1.03839061	1.04615157;
	318	-0.391273	-0.363813248	-0.0747297	-0.0697691083	1.02838317	1.03550896;
	320	-0.389143	-0.364393103	-0.095011	-0.0882342318	1.02597835	1.03260031;
	321	-0.334303	-0.310354556	-0.143853	-0.133663623	1.02073942	1.02694142;
	322	-0.333778	-0.310730606	-0.0678008	-0.0627026824	1.03483685	1.04176608;
	323	-0.523382	-0.489102827	-0.115874	-0.107828337	1.02322953	1.03021079;
	326	 -0.33255	-0.312915325	-0.0818945	-0.0762694809	1.01505931	1.02304196;
	332	-0.545972	-0.509990874	-0.127898	-0.118569602	1.00383276	1.01106406;
	334	-0.574022	-0.53689876	-0.105298	-0.0982742835	1.01391519	1.02063619;
	338	-0.575983	-0.535165347	-0.188513	-0.175751738	1.02485347	1.03230027;
	339	-0.447107	-0.41613394	-0.0750886	-0.0695423524	1.01291068	1.01962407;
	342	-0.447514	-0.416331933	-0.0973755	-0.091019917	1.01340254	1.02070932;
	344	-0.904106	-0.839979014	   -0.169	-0.157679819	1.0068381	1.01366483;
	348	-0.573346	-0.538026122	-0.0963738	-0.0902309899	0.991721685	0.997729117;
	354	-0.532791	-0.494421252	-0.155734	-0.14503664	1.01666947	1.02394892;
	355	-0.532148	-0.493932014	-0.186819	-0.174682323	1.01332684	1.01973456;
	356	-0.371659	-0.34831756	-0.0392942	-0.0364566418	1.02193785	1.02881647;
	358	 -0.37204	-0.348889832	-0.0354129	-0.0330217327	1.00662104	1.01341274;
	362	-0.394763	-0.371131543	-0.110847	-0.10314936	1.01131369	1.01879554;
	363	-0.395061	-0.368984615	-0.306106	-0.285165624	1.0075584	1.01495723;
	367	-0.463864	-0.431263471	 -0.13736	-0.127536485	1.00788859	1.01449083;
	368	 -0.48932	-0.457663621	 -0.14281	-0.133015691	1.01374094	1.02160069;
	370	-0.488387	-0.458305355	-0.0305062	-0.0284627556	1.01970114	1.02679068;
	374	-0.422443	-0.390890749	-0.0874491	-0.0809454967	1.0193012	1.02719838;
	376	 -0.50513	-0.471732679	-0.104691	-0.0973680788	1.02711783	1.03463352;
	377	-0.600395	-0.557393974	-0.258301	-0.241260379	1.0203342	1.02738701;
	379	-0.529485	-0.49312901	-0.125688	-0.116735486	0.996891718	1.00322423;
	380	-0.337253	-0.314465785	-0.0609247	-0.0563605177	1.01924218	1.0264768;
	381	-0.338396	-0.315241303	-0.0858313	-0.0804163783	1.01885005	1.02582192;
	385	-0.425138	-0.398427667	  -0.1076	-0.100093967	1.01446952	1.0214117;
	395	-0.503339	-0.467029192	-0.183877	-0.170995508	1.03140538	1.03848757;
	396	-0.501711	-0.466221008	-0.0996269	-0.0930716272	1.03355508	1.04110499;
	397	-0.366727	-0.343735836	-0.0899795	-0.0836817466	1.02440514	1.0323733;
	398	-0.366887	-0.343153247	-0.116156	-0.107362688	1.0203601	1.02747406;
	400	-0.332237	-0.308236111	-0.074743	-0.0694183315	1.01375593	1.02008579;
	404	-0.332008	-0.310863105	-0.114171	-0.106123482	1.01675694	1.02365985;
	406	-0.347482	-0.325185395	-0.0888034	-0.0829781766	1.02257857	1.02935607;
	407	-0.347635	-0.324973931	-0.162895	-0.151828712	1.01824619	1.0248539;
	408	-0.362815	-0.338486252	-0.131917	-0.123428657	1.02865731	1.0354776;
	409	 -0.36445	-0.33778595	-0.123914	-0.115930132	1.03148577	1.0386998;
	410	 -0.54609	-0.504895177	-0.239289	-0.221997846	1.01205498	1.0190473;
	411	-0.633552	-0.592201717	-0.115003	-0.106899252	1.02691234	1.03362929;
	415	-0.421218	-0.389504002	-0.248346	-0.232209917	1.01298798	1.020025;
	416	-0.420248	-0.389865053	-0.154337	-0.144488714	1.01023881	1.0169727;
	419	-0.455644	-0.421829925	-0.157027	-0.146475108	1.01616691	1.02354832;
	421	-0.426081	-0.398394396	-0.0621822	-0.058098001	1.02716625	1.03472484;
	425	-0.405115	-0.375937586	-0.0939936	-0.0874206338	1.0124381	1.0205086;
	429	-0.641755	-0.600585191	-0.132018	-0.123575096	1.00944101	1.01693763;
	430	-0.440448	-0.410784021	-0.0610951	-0.0567529426	1.02412128	1.0315633;
	433	-0.568073	-0.528731665	-0.0788327	-0.0734230551	1.03047125	1.03775359;
	434	-0.552823	-0.510651119	-0.0557323	-0.0518414724	1.02414081	1.0306095;
	435	-0.297434	-0.278488625	-0.0837452	-0.0778640834	1.01032786	1.01666133;
	436	 -0.45324	-0.422027912	-0.0788706	-0.0730749305	1.0201232	1.02684724;
	439	-0.305677	-0.285951982	-0.0582464	-0.0540846598	1.01901907	1.02585326;
	440	-0.569346	-0.531148006	-0.0420467	-0.0388970486	1.01671928	1.02444312;
	441	-0.567376	-0.532724249	-0.0517566	-0.0482854252	1.01997074	1.02710339;
	442	-0.416404	-0.389672634	-0.131756	-0.122956421	1.01433715	1.02126462;
	448	-0.556484	-0.519370989	-0.164146	-0.153221647	1.0303385	1.03758867;
	449	-0.494406	-0.459712364	-0.0497837	-0.0460471554	1.01467203	1.02143113;
	451	-0.492152	-0.462282102	-0.194555	-0.182160305	1.01525412	1.02193016;
	452	-0.519092	-0.484677878	-0.0577142	-0.0534101839	1.01216844	1.01960052;
	456	-0.613205	-0.570521005	-0.261627	-0.243215352	1.00591596	1.01255033;
	461	-0.540889	-0.506291456	 -0.15576	-0.145065018	1.01470895	1.02220891;
	465	-0.434472	-0.408425925	-0.185848	-0.174005255	1.01963295	1.02669634;
	466	-0.347239	-0.323207607	-0.0528353	-0.0491115704	1.00008173	1.00673594;
...
];

%% generator data
%	bus	Pg	Qg	Qmax	Qmin	Vg	mBase	status	Pmax	Pmin	Pc1	Pc2	Qc1min	Qc1max	Qc2min	Qc2max	ramp_agc	ramp_10	ramp_30	ramp_q	apf	mu_Pmax	mu_Pmin	mu_Qmax	mu_Qmin
mpc.gen = [
	683	0	0	61.16	-7.8	1.0464	207.74	0	159.27	52.01	0	0	0	0	0	0	0	0	0	0	159.27	0.0000	0.0000	0.0000	0.0000;
	684	85.29	60.4773261	61.16	-7.8	1.0203	201.13	1	85.29	85.29	0	0	0	0	0	0	0	0	0	0	159.2667	0.0000	0.0000	0.0000	0.0000;
	685	138.65	59.8759904	61.16	-7.8	1.0203	217.36	1	138.65	138.65	0	0	0	0	0	0	0	0	0	0	159.2667	0.0000	0.0000	0.0000	0.0000;
	686	0	0	61.16	-7.8	1.0464	214.15	0	159.27	56.04	0	0	0	0	0	0	0	0	0	0	159.2667	0.0000	0.0000	0.0000	0.0000;
	687	120.63	60.7913147	61.16	-7.8	1.019	188.08	1	120.63	120.63	0	0	0	0	0	0	0	0	0	0	159.2667	0.0000	0.0000	0.0000	0.0000;
	688	109.93	59.7461656	61.16	-7.8	1.0208	201.28	1	109.93	109.93	0	0	0	0	0	0	0	0	0	0	159.2667	0.0000	0.0000	0.0000	0.0000;
	689	9.02	5.10564552	4.95	-0.63	1.0014	12.9	1	9.02	9.02	0	0	0	0	0	0	0	0	0	0	12.9	0.0000	0.0000	0.0000	0.0000;
	691	59.72	25.0222297	21.07	-14.24	1.0063	98.92	1	59.72	59.72	0	0	0	0	0	0	0	0	0	0	98.9	0.0000	0.0000	0.0000	0.0000;
	694	23.02	7.50358396	13.44	-1.71	1.0483	35.08	1	23.02	23.02	0	0	0	0	0	0	0	0	0	0	35	0.0000	0.0000	0.0000	0.0000;
	695	25.55	7.57478312	13.44	-1.71	1.0484	41.36	1	25.55	25.55	0	0	0	0	0	0	0	0	0	0	35	0.0000	0.0000	0.0000	0.0000;
	699	79.42	-14.0755809	21.45	-14.5	1.0019	120.64	1	79.42	79.42	0	0	0	0	0	0	0	0	0	0	100.7	0.0000	0.0000	0.0000	0.0000;
	703	136.3	33.4512129	29.03	-19.63	1.0605	174.64	1	136.3	136.3	0	0	0	0	0	0	0	0	0	0	136.3	0.0000	0.0000	0.0000	0.0000;
	710	171.16	-9.97704989	83.17	-10.61	1.0096	238.48	1	171.16	171.16	0	0	0	0	0	0	0	0	0	0	216.6	0.0000	0.0000	0.0000	0.0000;
	711	189.67	-9.3822615	83.17	-10.61	1.01	219.83	1	189.67	189.67	0	0	0	0	0	0	0	0	0	0	216.6	0.0000	0.0000	0.0000	0.0000;
	712	135.95	-10.1251115	83.17	-10.61	1.0097	219.92	1	135.95	135.95	0	0	0	0	0	0	0	0	0	0	216.6	0.0000	0.0000	0.0000	0.0000;
	713	189.37	-10.2888435	83.17	-10.61	1.01	259.93	1	189.37	189.37	0	0	0	0	0	0	0	0	0	0	216.6	0.0000	0.0000	0.0000	0.0000;
	714	0	0	83.17	-10.61	1.0296	235.85	0	216.6	42.73	0	0	0	0	0	0	0	0	0	0	216.6	0.0000	0.0000	0.0000	0.0000;
	715	172.43	-8.95148119	83.17	-10.61	1.0166	279.75	1	172.43	172.43	0	0	0	0	0	0	0	0	0	0	216.6	0.0000	0.0000	0.0000	0.0000;
	722	0	0	40.28	-5.14	1.0344	131.4	0	104.9	32.78	0	0	0	0	0	0	0	0	0	0	104.9	0.0000	0.0000	0.0000	0.0000;
	723	82.25	41.1495457	40.28	-5.14	1.0007	152.84	1	82.25	82.25	0	0	0	0	0	0	0	0	0	0	104.9	0.0000	0.0000	0.0000	0.0000;
	724	104.9	41.1396491	40.28	-5.14	1.0018	115.76	1	104.9	104.9	0	0	0	0	0	0	0	0	0	0	104.9	0.0000	0.0000	0.0000	0.0000;
	725	71.29	41.1271804	40.28	-5.14	1.0026	116.27	1	71.29	71.29	0	0	0	0	0	0	0	0	0	0	104.9	0.0000	0.0000	0.0000	0.0000;
	726	71.08	41.0521705	40.28	-5.14	1.0029	106.56	1	71.08	71.08	0	0	0	0	0	0	0	0	0	0	104.9	0.0000	0.0000	0.0000	0.0000;
	727	0	0	40.28	-5.14	1.0344	122.59	0	104.9	28.25	0	0	0	0	0	0	0	0	0	0	104.9	0.0000	0.0000	0.0000	0.0000;
	728	23.81	96.9392995	10.73	-1.37	1.0177	32.27	1	23.81	23.81	0	0	0	0	0	0	0	0	0	0	27.95	0.0000	0.0000	0.0000	0.0000;
	728	0	0	10.73	-1.37	1.0177	35.8	0	27.95	6.98	0	0	0	0	0	0	0	0	0	0	27.95	0.0000	0.0000	0.0000	0.0000;
	729	0	0	10.73	-1.37	1.0133	27.95	0	27.95	6.03	0	0	0	0	0	0	0	0	0	0	27.95	0.0000	0.0000	0.0000	0.0000;
	729	20.46	-158.503664	10.73	-1.37	1.0133	32.33	1	20.46	20.46	0	0	0	0	0	0	0	0	0	0	27.95	0.0000	0.0000	0.0000	0.0000;
	731	0	0	6.5	-0.83	1.0172	18.62	0	16.92	5.64	0	0	0	0	0	0	0	0	0	0	16.92	0.0000	0.0000	0.0000	0.0000;
	731	0	0	6.5	-0.83	1.0172	21.25	0	16.92	6.86	0	0	0	0	0	0	0	0	0	0	16.92	0.0000	0.0000	0.0000	0.0000;
	731	0	0	6.5	-0.83	1.0172	16.92	0	16.92	3.04	0	0	0	0	0	0	0	0	0	0	16.92	0.0000	0.0000	0.0000	0.0000;
	731	9.83	-65.8933773	6.5	-0.83	1.0172	19.89	1	9.83	9.83	0	0	0	0	0	0	0	0	0	0	16.92	0.0000	0.0000	0.0000	0.0000;
	731	0	0	6.5	-0.83	1.0172	20.51	0	16.92	4.16	0	0	0	0	0	0	0	0	0	0	16.92	0.0000	0.0000	0.0000	0.0000;
	737	158.5	73.9251047	81.01	-17.67	1.0343	193.29	1	159.15	72.55	0	0	0	0	0	0	0	0	0	0	159.15	0.0000	0.0000	0.0000	0.0000;
	738	158.5	73.7492318	81.01	-17.67	1.0344	195.43	1	159.15	58.54	0	0	0	0	0	0	0	0	0	0	159.15	0.0000	0.0000	0.0000	0.0000;
	742	80	16.8508728	30.72	-3.92	1.0263	96.14	1	80	80	0	0	0	0	0	0	0	0	0	0	80	0.0000	0.0000	0.0000	0.0000;
	743	0	0	30.72	-3.92	1.0265	93.18	0	80	31.97	0	0	0	0	0	0	0	0	0	0	80	0.0000	0.0000	0.0000	0.0000;
	744	64.23	10.0068778	30.72	-3.92	1.0262	106.35	1	64.23	64.23	0	0	0	0	0	0	0	0	0	0	80	0.0000	0.0000	0.0000	0.0000;
	746	66.35	-12.8118058	19.17	-12.96	1.0205	98.26	1	66.35	66.35	0	0	0	0	0	0	0	0	0	0	90	0.0000	0.0000	0.0000	0.0000;
	750	409.37	-17.0653657	157.2	-20.06	1.0419	498.65	1	409.37	409.37	0	0	0	0	0	0	0	0	0	0	409.37	0.0000	0.0000	0.0000	0.0000;
	751	0	0	157.2	-20.06	1.0433	454.46	0	409.37	47.4	0	0	0	0	0	0	0	0	0	0	409.3667	0.0000	0.0000	0.0000	0.0000;
	752	293.05	-17.115794	157.2	-20.06	1.0421	417.45	1	293.05	293.05	0	0	0	0	0	0	0	0	0	0	409.3667	0.0000	0.0000	0.0000	0.0000;
	753	0	0	157.2	-20.06	1.0433	459.34	0	409.37	49.62	0	0	0	0	0	0	0	0	0	0	409.3667	0.0000	0.0000	0.0000	0.0000;
	754	323.1	-17.5475284	157.2	-20.06	1.0417	487.04	1	323.1	323.1	0	0	0	0	0	0	0	0	0	0	409.3667	0.0000	0.0000	0.0000	0.0000;
	755	333.93	-17.8332208	157.2	-20.06	1.0413	548.59	1	333.93	333.93	0	0	0	0	0	0	0	0	0	0	409.37	0.0000	0.0000	0.0000	0.0000;
	757	40.5	-28.4750818	15.55	-1.98	1.0231	45.68	1	40.5	40.5	0	0	0	0	0	0	0	0	0	0	40.5	0.0000	0.0000	0.0000	0.0000;
	757	40.5	-28.4750818	15.55	-1.98	1.0231	47.33	1	40.5	40.5	0	0	0	0	0	0	0	0	0	0	40.5	0.0000	0.0000	0.0000	0.0000;
	757	28.94	-28.4750818	15.55	-1.98	1.0231	57.72	1	28.94	28.94	0	0	0	0	0	0	0	0	0	0	40.5	0.0000	0.0000	0.0000	0.0000;
	757	0	0	15.55	-1.98	1.0231	56.8	0	40.5	9.58	0	0	0	0	0	0	0	0	0	0	40.5	0.0000	0.0000	0.0000	0.0000;
	758	0	0	21.35	-2.72	1.04	64.74	0	55.6	19.42	0	0	0	0	0	0	0	0	0	0	55.6	0.0000	0.0000	0.0000	0.0000;
	758	55.6	144.139037	21.35	-2.72	1.04	63.99	1	55.6	55.6	0	0	0	0	0	0	0	0	0	0	55.6	0.0000	0.0000	0.0000	0.0000;
	760	0	0	0	0	1.04	69.12	0	61.5	13.06	0	0	0	0	0	0	0	0	0	0	61.5	0.0000	0.0000	0.0000	0.0000;
	768	212.51	56.0479649	56.83	-38.42	1.0304	301.55	1	212.51	212.51	0	0	0	0	0	0	0	0	0	0	266.8	0.0000	0.0000	0.0000	0.0000;
	771	51.82	12.277706	19.9	-2.54	1.0384	72.35	1	51.82	51.82	0	0	0	0	0	0	0	0	0	0	51.825	0.0000	0.0000	0.0000	0.0000;
	772	41.62	13.2883501	19.9	-2.54	1.0394	52.68	1	41.62	41.62	0	0	0	0	0	0	0	0	0	0	51.825	0.0000	0.0000	0.0000	0.0000;
	773	0	0	19.9	-2.54	1.0317	66.71	0	51.82	20.88	0	0	0	0	0	0	0	0	0	0	51.83	0.0000	0.0000	0.0000	0.0000;
	774	41.38	10.7428237	19.9	-2.54	1.0373	57.61	1	41.38	41.38	0	0	0	0	0	0	0	0	0	0	51.825	0.0000	0.0000	0.0000	0.0000;
	776	0	0	0	0	1.0318	32.07	0	28	3.77	0	0	0	0	0	0	0	0	0	0	28	0.0000	0.0000	0.0000	0.0000;
	776	14.32	1.62732194	0	0	1.0318	23.98	1	14.32	14.32	0	0	0	0	0	0	0	0	0	0	20	0.0000	0.0000	0.0000	0.0000;
	778	8.03	-7.53807265	3.84	-0.49	1.0192	11.56	1	8.03	8.03	0	0	0	0	0	0	0	0	0	0	10	0.0000	0.0000	0.0000	0.0000;
	778	14.8	-11.1637519	5.68	-0.73	1.0192	14.94	1	14.8	14.8	0	0	0	0	0	0	0	0	0	0	14.8	0.0000	0.0000	0.0000	0.0000;
	782	13.43	-5.6470777	0	0	1.0162	27.32	1	13.43	13.43	0	0	0	0	0	0	0	0	0	0	18.3333	0.0000	0.0000	0.0000	0.0000;
	782	14.65	-5.6470777	0	0	1.0162	18.63	1	14.65	14.65	0	0	0	0	0	0	0	0	0	0	18.3333	0.0000	0.0000	0.0000	0.0000;
	783	13.24	-3.6332286	0	0	1.0155	22.11	1	13.24	13.24	0	0	0	0	0	0	0	0	0	0	18.3333	0.0000	0.0000	0.0000	0.0000;
	784	17.21	-89.6096709	0	0	1.0192	43.83	1	17.21	17.21	0	0	0	0	0	0	0	0	0	0	39.4	0.0000	0.0000	0.0000	0.0000;
	784	42.83	-89.6096709	0	0	1.0192	64.64	1	42.83	42.83	0	0	0	0	0	0	0	0	0	0	58.2	0.0000	0.0000	0.0000	0.0000;
	785	39.4	-36.3850853	0	0	1.0192	44.46	1	39.4	39.4	0	0	0	0	0	0	0	0	0	0	39.4	0.0000	0.0000	0.0000	0.0000;
	785	31.08	-36.3850853	0	0	1.0192	49.64	1	31.08	31.08	0	0	0	0	0	0	0	0	0	0	39.4	0.0000	0.0000	0.0000	0.0000;
	791	58.2	20.1354605	22.43	-15.16	0.996	136.19	1	58.2	58.2	0	0	0	0	0	0	0	0	0	0	105.3	0.0000	0.0000	0.0000	0.0000;
	796	0	0	21.23	-4.63	1.043	55.57	0	41.7	7.42	0	0	0	0	0	0	0	0	0	0	41.7	0.0000	0.0000	0.0000	0.0000;
	797	41.53	12.8439945	21.23	-4.63	1.0445	62.55	1	41.7	8.83	0	0	0	0	0	0	0	0	0	0	41.7	0.0000	0.0000	0.0000	0.0000;
	797	41.53	12.8439945	21.23	-4.63	1.0445	41.7	1	41.7	16.64	0	0	0	0	0	0	0	0	0	0	41.7	0.0000	0.0000	0.0000	0.0000;
	798	41.53	-3.80954824	21.23	-4.63	1.0269	41.7	1	41.7	13.81	0	0	0	0	0	0	0	0	0	0	41.7	0.0000	0.0000	0.0000	0.0000;
	800	82.34	54.3245012	20.83	-14.08	1.04	129.15	1	82.34	82.34	0	0	0	0	0	0	0	0	0	0	97.8	0.0000	0.0000	0.0000	0.0000;
	802	10.22	6.74630714	4.61	-0.59	1.0443	14.15	1	10.22	10.22	0	0	0	0	0	0	0	0	0	0	12	0.0000	0.0000	0.0000	0.0000;
	803	12	6.79141019	4.61	-0.59	1.0444	12.12	1	12	12	0	0	0	0	0	0	0	0	0	0	12	0.0000	0.0000	0.0000	0.0000;
	806	34.74	-2.78640928	17.51	-2.23	1.0235	52.42	1	34.74	34.74	0	0	0	0	0	0	0	0	0	0	45.6	0.0000	0.0000	0.0000	0.0000;
	806	42.97	-2.78640928	17.51	-2.23	1.0235	61.48	1	42.97	42.97	0	0	0	0	0	0	0	0	0	0	45.6	0.0000	0.0000	0.0000	0.0000;
	807	0	0	17.51	-2.23	1.0261	68.4	0	45.6	21.01	0	0	0	0	0	0	0	0	0	0	45.6	0.0000	0.0000	0.0000	0.0000;
	807	30.26	-3.06529411	17.51	-2.23	1.0261	51.24	1	30.26	30.26	0	0	0	0	0	0	0	0	0	0	45.6	0.0000	0.0000	0.0000	0.0000;
	811	1195.12	297.932438	441.6	-98.4	1.0653	1400.38	1	1200	469.13	0	0	0	0	0	0	0	0	0	0	1200	0.0000	0.0000	0.0000	0.0000;
	813	56.32	-81.3668515	25.73	-3.28	1.0153	74.5	1	56.32	56.32	0	0	0	0	0	0	0	0	0	0	67	0.0000	0.0000	0.0000	0.0000;
	813	0	0	25.73	-3.28	1.0153	91.7	0	67	30.37	0	0	0	0	0	0	0	0	0	0	67	0.0000	0.0000	0.0000	0.0000;
	817	50.7	-30.8135271	0	0	1.04	68.96	1	50.7	50.7	0	0	0	0	0	0	0	0	0	0	50.7	0.0000	0.0000	0.0000	0.0000;
	818	0	0	0	0	1.04	7.2	0	7.2	2.33	0	0	0	0	0	0	0	0	0	0	7.2	0.0000	0.0000	0.0000	0.0000;
	821	0	0	32.21	-21.77	1.0423	208.02	0	151.2	63.85	0	0	0	0	0	0	0	0	0	0	151.2	0.0000	0.0000	0.0000	0.0000;
	829	75.24	-8.45368284	51.84	-6.62	1.0232	168.3	1	75.24	75.24	0	0	0	0	0	0	0	0	0	0	135	0.0000	0.0000	0.0000	0.0000;
	830	135	-9.5724766	51.84	-6.62	1.0235	159.7	1	135	135	0	0	0	0	0	0	0	0	0	0	135	0.0000	0.0000	0.0000	0.0000;
	831	106.15	-9.4831328	51.84	-6.62	1.0233	152.07	1	106.15	106.15	0	0	0	0	0	0	0	0	0	0	135	0.0000	0.0000	0.0000	0.0000;
	832	135	-11.3067126	51.84	-6.62	1.0236	143.54	1	135	135	0	0	0	0	0	0	0	0	0	0	135	0.0000	0.0000	0.0000	0.0000;
...